version 2
1
9
.tran 750u 2 0{return}.kicad adjustpaths{return}.save all{return}.probe alli
1
1
V(Net-_D2-K_)
 
